case studies/14bus/14bus_toy.m
function mpc = 14bus_toy
%14BUS_TOY  reduction toy case, existing network only.
%   Generated by analysis/build_toy_case.jl from the planning workbook.
%   Demand scaling 0.05; wind and solar are negative load.
%   Planning-candidate lines and generators are NOT included.
%   Pmin is 0: it is a commitment floor, every solver here relaxes it,
%   and build_tx_case's base DC-OPF does not. Real floor in network_gens.csv.
mpc.version = '2';
mpc.baseMVA = 100;

%% bus data
%	bus_i	type	Pd	Qd	Gs	Bs	area	Vm	Va	baseKV	zone	Vmax	Vmin
mpc.bus = [
	1	3	0.0000	0	0	0	1	1	0	230	1	1.1	0.9;
	2	2	31.3841	0	0	0	1	1	0	230	1	1.1	0.9;
	3	2	120.8637	0	0	0	1	1	0	230	1	1.1	0.9;
	4	1	69.1319	0	0	0	1	1	0	230	1	1.1	0.9;
	5	1	10.9917	0	0	0	1	1	0	230	1	1.1	0.9;
	6	2	-29.5349	0	0	0	1	1	0	230	1	1.1	0.9;
	7	1	-11.5000	0	0	0	1	1	0	230	1	1.1	0.9;
	8	2	0.0000	0	0	0	1	1	0	230	1	1.1	0.9;
	9	1	17.3068	0	0	0	1	1	0	230	1	1.1	0.9;
	10	1	13.0165	0	0	0	1	1	0	230	1	1.1	0.9;
	11	1	5.0620	0	0	0	1	1	0	230	1	1.1	0.9;
	12	1	-21.7487	0	0	0	1	1	0	230	1	1.1	0.9;
	13	1	19.5247	0	0	0	1	1	0	230	1	1.1	0.9;
	14	1	0.8473	0	0	0	1	1	0	230	1	1.1	0.9;
];

%% generator data
%	bus	Pg	Qg	Qmax	Qmin	Vg	mBase	status	Pmax	Pmin	Pc1	Pc2	Qc1min	Qc1max	Qc2min	Qc2max	ramp_agc	ramp_10	ramp_30	ramp_q	apf
mpc.gen = [
	1	0	0	0	0	1	100	1	330.0000	0	0	0	0	0	0	0	0	0	0	0	0;
	2	0	0	0	0	1	100	1	140.0000	0	0	0	0	0	0	0	0	0	0	0	0;
	3	0	0	0	0	1	100	1	100.0000	0	0	0	0	0	0	0	0	0	0	0	0;
	6	0	0	0	0	1	100	1	100.0000	0	0	0	0	0	0	0	0	0	0	0	0;
	8	0	0	0	0	1	100	1	100.0000	0	0	0	0	0	0	0	0	0	0	0	0;
];

%% branch data
%	fbus	tbus	r	x	b	rateA	rateB	rateC	ratio	angle	status	angmin	angmax
mpc.branch = [
	1	2	0	0.059170	0	100.0000	100.0000	100.0000	0	0	1	-360	360;
	1	5	0	0.223040	0	100.0000	100.0000	100.0000	0	0	1	-360	360;
	2	3	0	0.197970	0	100.0000	100.0000	100.0000	0	0	1	-360	360;
	2	4	0	0.176320	0	100.0000	100.0000	100.0000	0	0	1	-360	360;
	2	5	0	0.173880	0	100.0000	100.0000	100.0000	0	0	1	-360	360;
	3	4	0	0.171030	0	100.0000	100.0000	100.0000	0	0	1	-360	360;
	4	5	0	0.042110	0	100.0000	100.0000	100.0000	0	0	1	-360	360;
	4	7	0	0.209120	0	100.0000	100.0000	100.0000	0	0	1	-360	360;
	4	9	0	0.556180	0	100.0000	100.0000	100.0000	0	0	1	-360	360;
	5	6	0	0.252020	0	100.0000	100.0000	100.0000	0	0	1	-360	360;
	6	11	0	0.198900	0	100.0000	100.0000	100.0000	0	0	1	-360	360;
	6	12	0	0.255810	0	100.0000	100.0000	100.0000	0	0	1	-360	360;
	6	13	0	0.130270	0	100.0000	100.0000	100.0000	0	0	1	-360	360;
	7	8	0	0.176150	0	100.0000	100.0000	100.0000	0	0	1	-360	360;
	7	9	0	0.110010	0	100.0000	100.0000	100.0000	0	0	1	-360	360;
	9	10	0	0.084500	0	100.0000	100.0000	100.0000	0	0	1	-360	360;
	9	14	0	0.270380	0	100.0000	100.0000	100.0000	0	0	1	-360	360;
	10	11	0	0.192070	0	100.0000	100.0000	100.0000	0	0	1	-360	360;
	12	13	0	0.199880	0	100.0000	100.0000	100.0000	0	0	1	-360	360;
	13	14	0	0.348020	0	100.0000	100.0000	100.0000	0	0	1	-360	360;
];

%% generator cost data
mpc.gencost = [
	2	0	0	3	0	30.450000	0;
	2	0	0	3	0	30.450000	0;
	2	0	0	3	0	47.155200	0;
	2	0	0	3	0	47.155200	0;
	2	0	0	3	0	96.121800	0;
];
